<?xml version="1.0" encoding="UTF-8"?>

<!-- generated on 2025-05-22 14:43:19 by Eclipse SUMO netedit Version v1_21_0+0707-ca487ebdee8
-->

<routes xmlns:xsi="http://www.w3.org/2001/XMLSchema-instance" xsi:noNamespaceSchemaLocation="http://sumo.dlr.de/xsd/routes_file.xsd">
    <!-- Routes -->
    <route id="r_0" edges="E1 E2"/>
    <route id="r_1" edges="E0 E2"/>
    <!-- Vehicles, persons and containers (sorted by depart) -->
    <flow id="f_0" begin="0.00" route="r_0" end="3600.00" vehsPerHour="1800"/>
    <flow id="f_1" begin="0.00" route="r_1" end="3600.00" vehsPerHour="1800"/>
</routes>
