<?xml version="1.0" encoding="UTF-8"?>

<!-- generated on 2025-06-05 11:49:44 by Eclipse SUMO netedit Version v1_21_0+0707-ca487ebdee8
<neteditConfiguration xmlns:xsi="http://www.w3.org/2001/XMLSchema-instance" xsi:noNamespaceSchemaLocation="http://sumo.dlr.de/xsd/neteditConfiguration.xsd">

    <input>
        <sumocfg-file value="C:\Users\Erasmo\Desktop\Emmanuel\SUMO\Pruebas\prueba.sumocfg"/>
        <additional-files value="C:\Users\Erasmo\Desktop\Emmanuel\SUMO\Pruebas\prueba.add.xml"/>
        <route-files value="C:\Users\Erasmo\Desktop\Emmanuel\SUMO\Pruebas\prueba.rou.xml"/>
        <data-files value="C:\Users\Erasmo\Desktop\Emmanuel\SUMO\Pruebas\prueba.dat.xml"/>
        <sumo-net-file value="C:\Users\Erasmo\Desktop\Emmanuel\SUMO\Pruebas\prueba.net.xml"/>
    </input>

    <output>
        <output-file value="C:\Users\Erasmo\Desktop\Emmanuel\SUMO\Pruebas\prueba.net.xml"/>
    </output>

    <processing>
        <offset.disable-normalization value="true"/>
    </processing>

    <junctions>
        <no-turnarounds value="true"/>
    </junctions>

    <netedit>
        <new-network value="false"/>
    </netedit>

</neteditConfiguration>
-->

<net version="1.20" junctionCornerDetail="5" limitTurnSpeed="5.50" xmlns:xsi="http://www.w3.org/2001/XMLSchema-instance" xsi:noNamespaceSchemaLocation="http://sumo.dlr.de/xsd/net_file.xsd">

    <location netOffset="0.00,0.00" convBoundary="-55.41,-62.48,-13.20,40.22" origBoundary="10000000000.00,10000000000.00,-10000000000.00,-10000000000.00" projParameter="!"/>

    <edge id=":J1_0" function="internal">
        <lane id=":J1_0_0" index="0" speed="13.89" length="14.45" shape="-10.27,-8.57 -10.74,5.89"/>
        <lane id=":J1_0_1" index="1" speed="13.89" length="14.45" shape="-13.47,-8.67 -13.94,5.75"/>
    </edge>
    <edge id=":J1_2" function="internal">
        <lane id=":J1_2_0" index="0" speed="7.93" length="14.36" shape="-19.37,-3.11 -15.45,-2.55 -12.71,-0.86 -11.14,1.95 -10.74,5.89"/>
        <lane id=":J1_2_1" index="1" speed="6.42" length="9.04" shape="-19.37,0.09 -16.90,0.44 -15.17,1.50 -14.19,3.27 -13.94,5.75"/>
    </edge>
    <edge id=":J5_0" function="internal">
        <lane id=":J5_0_0" index="0" speed="13.89" length="14.38" shape="-9.36,-37.29 -9.87,-22.93"/>
        <lane id=":J5_0_1" index="1" speed="13.89" length="14.38" shape="-12.56,-37.41 -13.07,-23.02"/>
    </edge>
    <edge id=":J5_2" function="internal">
        <lane id=":J5_2_0" index="0" speed="7.92" length="14.38" shape="-18.65,-31.78 -14.71,-31.30 -11.93,-29.66 -10.32,-26.87 -9.87,-22.93"/>
        <lane id=":J5_2_1" index="1" speed="6.40" length="9.04" shape="-18.58,-28.58 -16.11,-28.28 -14.36,-27.25 -13.35,-25.50 -13.07,-23.02"/>
    </edge>

    <edge id="E0" from="J1" to="J2" priority="-1">
        <lane id="E0_0" index="0" speed="13.89" length="34.57" shape="-10.74,5.89 -12.20,40.42"/>
        <lane id="E0_1" index="1" speed="13.89" length="34.57" shape="-13.94,5.75 -15.40,40.29"/>
    </edge>
    <edge id="E1" from="J3" to="J1" priority="-1">
        <lane id="E1_0" index="0" speed="13.89" length="36.05" shape="-55.41,-3.11 -19.37,-3.11"/>
        <lane id="E1_1" index="1" speed="13.89" length="36.05" shape="-55.41,0.09 -19.37,0.09"/>
    </edge>
    <edge id="E2" from="J4" to="J5" priority="-1">
        <lane id="E2_0" index="0" speed="13.89" length="35.94" shape="-54.58,-31.05 -18.65,-31.78"/>
        <lane id="E2_1" index="1" speed="13.89" length="35.94" shape="-54.51,-27.85 -18.58,-28.58"/>
    </edge>
    <edge id="E3" from="J5" to="J1" priority="-1">
        <lane id="E3_0" index="0" speed="13.89" length="14.36" shape="-9.87,-22.93 -10.27,-8.57"/>
        <lane id="E3_1" index="1" speed="13.89" length="14.36" shape="-13.07,-23.02 -13.47,-8.67"/>
    </edge>
    <edge id="E4" from="J6" to="J5" priority="-1">
        <lane id="E4_0" index="0" speed="13.89" length="25.03" shape="-8.40,-62.30 -9.36,-37.29"/>
        <lane id="E4_1" index="1" speed="13.89" length="25.03" shape="-11.60,-62.42 -12.56,-37.41"/>
    </edge>

    <tlLogic id="J1" type="static" programID="0" offset="0">
        <phase duration="42" state="GGrr"/>
        <phase duration="3"  state="yyrr"/>
        <phase duration="41" state="rrGG"/>
        <phase duration="3"  state="rryy"/>
        <phase duration="1"  state="rrrr"/>
    </tlLogic>
    <tlLogic id="J5" type="static" programID="0" offset="0">
        <phase duration="42" state="GGrr"/>
        <phase duration="3"  state="yyrr"/>
        <phase duration="41" state="rrGG"/>
        <phase duration="3"  state="rryy"/>
        <phase duration="1"  state="rrrr"/>
    </tlLogic>

    <junction id="J1" type="traffic_light" x="-15.37" y="1.69" incLanes="E3_0 E3_1 E1_0 E1_1" intLanes=":J1_0_0 :J1_0_1 :J1_2_0 :J1_2_1" shape="-8.67,-8.53 -15.07,-8.71 -15.60,-6.49 -16.20,-5.71 -17.03,-5.16 -18.09,-4.82 -19.37,-4.71 -19.37,1.69 -17.16,2.13 -16.41,2.69 -15.89,3.46 -15.60,4.46 -15.54,5.68 -9.14,5.95">
        <request index="0" response="0000" foes="1100" cont="0"/>
        <request index="1" response="0000" foes="1100" cont="0"/>
        <request index="2" response="0011" foes="0011" cont="0"/>
        <request index="3" response="0011" foes="0011" cont="0"/>
    </junction>
    <junction id="J2" type="dead_end" x="-17.00" y="40.22" incLanes="E0_0 E0_1" intLanes="" shape="-10.60,40.49 -17.00,40.22"/>
    <junction id="J3" type="dead_end" x="-55.41" y="1.69" incLanes="" intLanes="" shape="-55.41,1.69 -55.41,-4.71"/>
    <junction id="J4" type="dead_end" x="-54.48" y="-26.25" incLanes="" intLanes="" shape="-54.48,-26.25 -54.61,-32.65"/>
    <junction id="J5" type="traffic_light" x="-14.55" y="-27.07" incLanes="E4_0 E4_1 E2_0 E2_1" intLanes=":J5_0_0 :J5_0_1 :J5_2_0 :J5_2_1" shape="-7.76,-37.23 -14.15,-37.47 -14.73,-35.24 -15.36,-34.45 -16.23,-33.88 -17.34,-33.52 -18.68,-33.38 -18.55,-26.98 -16.34,-26.59 -15.58,-26.05 -15.05,-25.28 -14.74,-24.29 -14.67,-23.07 -8.27,-22.89">
        <request index="0" response="0000" foes="1100" cont="0"/>
        <request index="1" response="0000" foes="1100" cont="0"/>
        <request index="2" response="0011" foes="0011" cont="0"/>
        <request index="3" response="0011" foes="0011" cont="0"/>
    </junction>
    <junction id="J6" type="dead_end" x="-13.20" y="-62.48" incLanes="" intLanes="" shape="-13.20,-62.48 -6.80,-62.24"/>

    <connection from="E1" to="E0" fromLane="0" toLane="0" via=":J1_2_0" tl="J1" linkIndex="2" dir="l" state="o"/>
    <connection from="E1" to="E0" fromLane="1" toLane="1" via=":J1_2_1" tl="J1" linkIndex="3" dir="l" state="o"/>
    <connection from="E2" to="E3" fromLane="0" toLane="0" via=":J5_2_0" tl="J5" linkIndex="2" dir="l" state="o"/>
    <connection from="E2" to="E3" fromLane="1" toLane="1" via=":J5_2_1" tl="J5" linkIndex="3" dir="l" state="o"/>
    <connection from="E3" to="E0" fromLane="0" toLane="0" via=":J1_0_0" tl="J1" linkIndex="0" dir="s" state="O"/>
    <connection from="E3" to="E0" fromLane="1" toLane="1" via=":J1_0_1" tl="J1" linkIndex="1" dir="s" state="O"/>
    <connection from="E4" to="E3" fromLane="0" toLane="0" via=":J5_0_0" tl="J5" linkIndex="0" dir="s" state="O"/>
    <connection from="E4" to="E3" fromLane="1" toLane="1" via=":J5_0_1" tl="J5" linkIndex="1" dir="s" state="O"/>

    <connection from=":J1_0" to="E0" fromLane="0" toLane="0" dir="s" state="M"/>
    <connection from=":J1_0" to="E0" fromLane="1" toLane="1" dir="s" state="M"/>
    <connection from=":J1_2" to="E0" fromLane="0" toLane="0" dir="l" state="M"/>
    <connection from=":J1_2" to="E0" fromLane="1" toLane="1" dir="l" state="M"/>
    <connection from=":J5_0" to="E3" fromLane="0" toLane="0" dir="s" state="M"/>
    <connection from=":J5_0" to="E3" fromLane="1" toLane="1" dir="s" state="M"/>
    <connection from=":J5_2" to="E3" fromLane="0" toLane="0" dir="l" state="M"/>
    <connection from=":J5_2" to="E3" fromLane="1" toLane="1" dir="l" state="M"/>

</net>
