<?xml version="1.0" encoding="UTF-8"?>

<!-- generated on 2025-06-11 00:21:42 by Eclipse SUMO sumo Version v1_21_0+0707-ca487ebdee8
-->

<sumoConfiguration xmlns:xsi="http://www.w3.org/2001/XMLSchema-instance" xsi:noNamespaceSchemaLocation="http://sumo.dlr.de/xsd/sumoConfiguration.xsd">

    <input>
        <net-file value="prueba.net.xml"/>
        <route-files value="prueba.rou.xml"/>
        <additional-files value="prueba.add.xml"/>
    </input>

</sumoConfiguration>
