<?xml version="1.0" encoding="UTF-8"?>

<!-- generated on 2025-06-11 00:22:27 by Eclipse SUMO netedit Version v1_21_0+0707-ca487ebdee8
<neteditConfiguration xmlns:xsi="http://www.w3.org/2001/XMLSchema-instance" xsi:noNamespaceSchemaLocation="http://sumo.dlr.de/xsd/neteditConfiguration.xsd">

    <input>
        <sumocfg-file value="C:\Users\emman\Desktop\Servicio\SUMO\SUMO_EjeCentral\Sumo_EjeCentral\pruebas\prueba.sumocfg"/>
        <additional-files value="C:\Users\emman\Desktop\Servicio\SUMO\SUMO_EjeCentral\Sumo_EjeCentral\pruebas\prueba.add.xml"/>
        <route-files value="C:\Users\emman\Desktop\Servicio\SUMO\SUMO_EjeCentral\Sumo_EjeCentral\pruebas\prueba.rou.xml"/>
        <sumo-net-file value="C:\Users\emman\Desktop\Servicio\SUMO\SUMO_EjeCentral\Sumo_EjeCentral\pruebas\prueba.net.xml"/>
    </input>

    <output>
        <output-file value="C:\Users\emman\Desktop\Servicio\SUMO\SUMO_EjeCentral\Sumo_EjeCentral\pruebas\prueba.net.xml"/>
    </output>

    <processing>
        <offset.disable-normalization value="true"/>
    </processing>

    <junctions>
        <no-turnarounds value="true"/>
    </junctions>

    <netedit>
        <new-network value="false"/>
    </netedit>

</neteditConfiguration>
-->

<net version="1.20" junctionCornerDetail="5" limitTurnSpeed="5.50" xmlns:xsi="http://www.w3.org/2001/XMLSchema-instance" xsi:noNamespaceSchemaLocation="http://sumo.dlr.de/xsd/net_file.xsd">

    <location netOffset="0.00,0.00" convBoundary="-992.63,-1025.61,7.37,44.14" origBoundary="10000000000.00,10000000000.00,-10000000000.00,-10000000000.00" projParameter="!"/>

    <edge id=":J1_0" function="internal">
        <lane id=":J1_0_0" index="0" speed="13.89" length="14.53" shape="12.17,0.85 12.01,15.44"/>
        <lane id=":J1_0_1" index="1" speed="13.89" length="14.53" shape="8.97,0.85 8.81,15.31"/>
    </edge>
    <edge id=":J1_2" function="internal">
        <lane id=":J1_2_0" index="0" speed="7.93" length="14.35" shape="3.37,6.45 7.28,7.01 10.03,8.70 11.60,11.51 12.01,15.44"/>
        <lane id=":J1_2_1" index="1" speed="6.42" length="9.04" shape="3.37,9.65 5.83,10.00 7.56,11.07 8.55,12.83 8.81,15.31"/>
    </edge>

    <edge id="E0" from="J0" to="J1" priority="-1">
        <lane id="E0_0" index="0" speed="13.89" length="996.00" shape="-992.63,6.45 3.37,6.45"/>
        <lane id="E0_1" index="1" speed="13.89" length="996.00" shape="-992.63,9.65 3.37,9.65"/>
    </edge>
    <edge id="E1" from="J1" to="J2" priority="-1">
        <lane id="E1_0" index="0" speed="13.89" length="28.92" shape="12.01,15.44 10.85,44.33"/>
        <lane id="E1_1" index="1" speed="13.89" length="28.92" shape="8.81,15.31 7.65,44.20"/>
    </edge>
    <edge id="E2" from="J3" to="J1" priority="-1">
        <lane id="E2_0" index="0" speed="13.89" length="1026.46" shape="12.17,-1025.61 12.17,0.85"/>
        <lane id="E2_1" index="1" speed="13.89" length="1026.46" shape="8.97,-1025.61 8.97,0.85"/>
    </edge>

    <tlLogic id="J1" type="static" programID="0" offset="0">
        <phase duration="42" state="GGrr"/>
        <phase duration="3"  state="yyrr"/>
        <phase duration="41" state="rrGG"/>
        <phase duration="3"  state="rryy"/>
        <phase duration="1"  state="rrrr"/>
    </tlLogic>

    <junction id="J0" type="dead_end" x="-992.63" y="11.25" incLanes="" intLanes="" shape="-992.63,11.25 -992.63,4.85"/>
    <junction id="J1" type="traffic_light" x="7.37" y="11.25" incLanes="E2_0 E2_1 E0_0 E0_1" intLanes=":J1_0_0 :J1_0_1 :J1_2_0 :J1_2_1" shape="13.77,0.85 7.37,0.85 6.93,3.07 6.37,3.85 5.59,4.41 4.59,4.74 3.37,4.85 3.37,11.25 5.57,11.69 6.33,12.25 6.85,13.03 7.15,14.03 7.21,15.25 13.60,15.50">
        <request index="0" response="0000" foes="1100" cont="0"/>
        <request index="1" response="0000" foes="1100" cont="0"/>
        <request index="2" response="0011" foes="0011" cont="0"/>
        <request index="3" response="0011" foes="0011" cont="0"/>
    </junction>
    <junction id="J2" type="dead_end" x="6.05" y="44.14" incLanes="E1_0 E1_1" intLanes="" shape="12.44,44.40 6.05,44.14"/>
    <junction id="J3" type="dead_end" x="7.37" y="-1025.61" incLanes="" intLanes="" shape="7.37,-1025.61 13.77,-1025.61"/>

    <connection from="E0" to="E1" fromLane="0" toLane="0" via=":J1_2_0" tl="J1" linkIndex="2" dir="l" state="o"/>
    <connection from="E0" to="E1" fromLane="1" toLane="1" via=":J1_2_1" tl="J1" linkIndex="3" dir="l" state="o"/>
    <connection from="E2" to="E1" fromLane="0" toLane="0" via=":J1_0_0" tl="J1" linkIndex="0" dir="s" state="O"/>
    <connection from="E2" to="E1" fromLane="1" toLane="1" via=":J1_0_1" tl="J1" linkIndex="1" dir="s" state="O"/>

    <connection from=":J1_0" to="E1" fromLane="0" toLane="0" dir="s" state="M"/>
    <connection from=":J1_0" to="E1" fromLane="1" toLane="1" dir="s" state="M"/>
    <connection from=":J1_2" to="E1" fromLane="0" toLane="0" dir="l" state="M"/>
    <connection from=":J1_2" to="E1" fromLane="1" toLane="1" dir="l" state="M"/>

</net>
