<?xml version="1.0" encoding="UTF-8"?>

<!-- generated on 2025-06-11 00:22:27 by Eclipse SUMO netedit Version v1_21_0+0707-ca487ebdee8
-->

<additional xmlns:xsi="http://www.w3.org/2001/XMLSchema-instance" xsi:noNamespaceSchemaLocation="http://sumo.dlr.de/xsd/additional_file.xsd">
</additional>
