<?xml version="1.0" encoding="UTF-8"?>

<!-- generated on 2025-05-25 19:28:52 by Eclipse SUMO netedit Version v1_21_0+0707-ca487ebdee8
<neteditConfiguration xmlns:xsi="http://www.w3.org/2001/XMLSchema-instance" xsi:noNamespaceSchemaLocation="http://sumo.dlr.de/xsd/neteditConfiguration.xsd">

    <input>
        <sumo-net-file value="C:\Users\emman\Desktop\Servicio\SUMO\SUMO_EjeCentral\Sumo_EjeCentral\nt1.net.xml"/>
    </input>

    <output>
        <output-file value="C:\Users\emman\Desktop\Servicio\SUMO\SUMO_EjeCentral\Sumo_EjeCentral\nt1.net.xml"/>
    </output>

    <processing>
        <geometry.min-radius.fix.railways value="false"/>
        <geometry.max-grade.fix value="false"/>
        <offset.disable-normalization value="true"/>
        <lefthand value="0"/>
    </processing>

    <junctions>
        <no-turnarounds value="true"/>
        <junctions.corner-detail value="5"/>
        <junctions.limit-turn-speed value="5.50"/>
        <rectangular-lane-cut value="0"/>
    </junctions>

    <pedestrian>
        <walkingareas value="0"/>
    </pedestrian>

</neteditConfiguration>
-->

<net version="1.20" junctionCornerDetail="5" limitTurnSpeed="5.50" xmlns:xsi="http://www.w3.org/2001/XMLSchema-instance" xsi:noNamespaceSchemaLocation="http://sumo.dlr.de/xsd/net_file.xsd">

    <location netOffset="0.00,0.00" convBoundary="-159.55,-113.04,-9.55,124.70" origBoundary="-10000000000.00,-10000000000.00,10000000000.00,10000000000.00" projParameter="!"/>

    <edge id=":J1_0" function="internal">
        <lane id=":J1_0_0" index="0" speed="13.89" length="14.42" shape="-4.75,29.76 -4.80,44.20"/>
        <lane id=":J1_0_1" index="1" speed="13.89" length="14.42" shape="-7.95,29.76 -8.00,44.17"/>
    </edge>
    <edge id=":J1_2" function="internal">
        <lane id=":J1_2_0" index="0" speed="7.99" length="14.22" shape="-13.57,35.36 -9.71,35.91 -6.96,37.57 -5.33,40.33 -4.80,44.20"/>
        <lane id=":J1_2_1" index="1" speed="6.49" length="9.03" shape="-13.57,38.56 -11.12,38.91 -9.38,39.96 -8.34,41.72 -8.00,44.17"/>
    </edge>

    <edge id="E0" from="J0" to="J1" priority="-1">
        <lane id="E0_0" index="0" speed="13.89" length="142.80" shape="-4.75,-113.04 -4.75,29.76"/>
        <lane id="E0_1" index="1" speed="13.89" length="142.80" shape="-7.95,-113.04 -7.95,29.76"/>
    </edge>
    <edge id="E1" from="J2" to="J1" priority="-1" spreadType="center">
        <lane id="E1_0" index="0" speed="13.89" length="145.98" shape="-159.55,35.36 -13.57,35.36"/>
        <lane id="E1_1" index="1" speed="13.89" length="145.98" shape="-159.55,38.56 -13.57,38.56"/>
    </edge>
    <edge id="E2" from="J1" to="J3" priority="-1">
        <lane id="E2_0" index="0" speed="13.89" length="80.54" shape="-4.80,44.20 -5.41,124.74"/>
        <lane id="E2_1" index="1" speed="13.89" length="80.54" shape="-8.00,44.17 -8.61,124.71"/>
    </edge>

    <tlLogic id="J1" type="static" programID="0" offset="0">
        <phase duration="15" state="GGrr"/>
        <phase duration="3"  state="yyrr"/>
        <phase duration="15" state="rrGG"/>
        <phase duration="3"  state="rryy"/>
    </tlLogic>

    <junction id="J0" type="dead_end" x="-9.55" y="-113.04" incLanes="" intLanes="" shape="-9.55,-113.04 -3.15,-113.04"/>
    <junction id="J1" type="traffic_light" x="-9.55" y="36.96" incLanes="E0_0 E0_1 E1_0 E1_1" intLanes=":J1_0_0 :J1_0_1 :J1_2_0 :J1_2_1" shape="-3.15,29.76 -9.55,29.76 -10.00,31.98 -10.56,32.76 -11.34,33.32 -12.34,33.65 -13.57,33.76 -13.57,40.16 -11.36,40.60 -10.58,41.16 -10.03,41.94 -9.71,42.94 -9.60,44.16 -3.20,44.21">
        <request index="0" response="0000" foes="1100" cont="0"/>
        <request index="1" response="0000" foes="1100" cont="0"/>
        <request index="2" response="0011" foes="0011" cont="0"/>
        <request index="3" response="0011" foes="0011" cont="0"/>
    </junction>
    <junction id="J2" type="dead_end" x="-159.55" y="36.96" incLanes="" intLanes="" shape="-159.55,40.16 -159.55,33.76"/>
    <junction id="J3" type="dead_end" x="-10.21" y="124.70" incLanes="E2_0 E2_1" intLanes="" shape="-3.81,124.75 -10.21,124.70"/>

    <connection from="E0" to="E2" fromLane="0" toLane="0" via=":J1_0_0" tl="J1" linkIndex="0" dir="s" state="O"/>
    <connection from="E0" to="E2" fromLane="1" toLane="1" via=":J1_0_1" tl="J1" linkIndex="1" dir="s" state="O"/>
    <connection from="E1" to="E2" fromLane="0" toLane="0" via=":J1_2_0" tl="J1" linkIndex="2" dir="l" state="o"/>
    <connection from="E1" to="E2" fromLane="1" toLane="1" via=":J1_2_1" tl="J1" linkIndex="3" dir="l" state="o"/>

    <connection from=":J1_0" to="E2" fromLane="0" toLane="0" dir="s" state="M"/>
    <connection from=":J1_0" to="E2" fromLane="1" toLane="1" dir="s" state="M"/>
    <connection from=":J1_2" to="E2" fromLane="0" toLane="0" dir="l" state="M"/>
    <connection from=":J1_2" to="E2" fromLane="1" toLane="1" dir="l" state="M"/>

</net>
